tests/data/power_flow/pv-node/pv-node6/sym_output.json
{
  "version": "1.0",
  "type": "sym_output",
  "is_batch": false,
  "attributes": {},
  "data": {
    "node": [
      {
        "id": 10,
        "energized": 1,
        "u_pu": 1.05,
        "u": 231000.0,
        "u_angle": -0.0
      },
      {
        "id": 20,
        "energized": 1,
        "u_pu": 1.045,
        "u": 114950.0,
        "u_angle": -0.12233
      },
      {
        "id": 30,
        "energized": 1,
        "u_pu": 1.04,
        "u": 114400.0,
        "u_angle": -0.209797
      },
      {
        "id": 40,
        "energized": 1,
        "u_pu": 1.0475,
        "u": 115225.0,
        "u_angle": -0.123089
      },
      {
        "id": 50,
        "energized": 1,
        "u_pu": 1.038912,
        "u": 114280.336897,
        "u_angle": -0.143867
      },
      {
        "id": 60,
        "energized": 1,
        "u_pu": 1.055,
        "u": 400900.0,
        "u_angle": -0.088943
      }
    ],
    "sym_load": [
      {
        "id": 13,
        "energized": 1,
        "p": 50000000.0,
        "q": 40000000.0,
        "i": 160.036602,
        "s": 64031242.374328,
        "pf": 0.780869
      },
      {
        "id": 22,
        "energized": 1,
        "p": 600000000.0,
        "q": 60000000.0,
        "i": 3028.602903,
        "s": 602992537.267253,
        "pf": 0.995037
      },
      {
        "id": 32,
        "energized": 1,
        "p": 400000000.0,
        "q": -82040176.552776,
        "i": 2060.72952,
        "s": 408326573.429664,
        "pf": 0.979608
      },
      {
        "id": 51,
        "energized": 1,
        "p": 400000000.0,
        "q": 80000000.0,
        "i": 2060.841169,
        "s": 407921561.087423,
        "pf": 0.980581
      },
      {
        "id": 63,
        "energized": 1,
        "p": 60000000.0,
        "q": 12000000.0,
        "i": 88.11934,
        "s": 61188234.163113,
        "pf": 0.980581
      }
    ],
    "asym_load": [
      {
        "id": 33,
        "energized": 1,
        "p": 750000000.0,
        "q": 30000000.0,
        "i": 3788.102916,
        "s": 750599760.191808,
        "pf": 0.999201
      }
    ],
    "sym_gen": [
      {
        "id": 12,
        "energized": 1,
        "p": 1000000000.0,
        "q": 10000000.0,
        "i": 2499.476779,
        "s": 1000049998.750062,
        "pf": 0.99995
      },
      {
        "id": 21,
        "energized": 1,
        "p": 100000000.0,
        "q": 87199256.762823,
        "i": 666.396189,
        "s": 132678974.898018,
        "pf": 0.753699
      },
      {
        "id": 41,
        "energized": 1,
        "p": 60000000.0,
        "q": -8092222.597075,
        "i": 303.360006,
        "s": 60543241.295463,
        "pf": 0.991027
      },
      {
        "id": 42,
        "energized": 1,
        "p": 78562500.0,
        "q": -8092222.597075,
        "i": 395.730654,
        "s": 78978164.531791,
        "pf": 0.994737
      },
      {
        "id": 62,
        "energized": 1,
        "p": 600000000.0,
        "q": -408387441.596552,
        "i": 1045.244955,
        "s": 725796322.981714,
        "pf": 0.826678
      }
    ],
    "asym_gen": [
      {
        "id": 31,
        "energized": 1,
        "p": 162240000.0,
        "q": 82040176.552776,
        "i": 917.518652,
        "s": 181803212.75712,
        "pf": 0.892393
      }
    ],
    "source": [
      {
        "id": 11,
        "energized": 1,
        "p": 269732285.558918,
        "q": -19478863.445883,
        "i": 675.911481,
        "s": 270434709.29964,
        "pf": 0.997403
      },
      {
        "id": 61,
        "energized": 0,
        "p": 0.0,
        "q": 0.0,
        "i": 0.0,
        "s": 0.0,
        "pf": 0.0
      }
    ],
    "line": [
      {
        "id": 71,
        "energized": 1,
        "p_from": 572519608.133055,
        "q_from": -16894075.870593,
        "i_from": 2876.800588,
        "s_from": 572768811.56043,
        "p_to": -566313867.267787,
        "q_to": 62408672.972081,
        "i_to": 2875.357038,
        "s_to": 569742256.394883,
        "loading": 2.876801
      },
      {
        "id": 72,
        "energized": 1,
        "p_from": 3002042.50767,
        "q_from": -18254546.466099,
        "i_from": 92.917227,
        "s_from": 18499749.346973,
        "p_to": -2996919.500539,
        "q_to": 14134443.438706,
        "i_to": 72.396985,
        "s_to": 14448668.375137,
        "loading": 0.092917
      },
      {
        "id": 73,
        "energized": 1,
        "p_from": 144194695.60719,
        "q_from": 19912162.670148,
        "i_from": 731.108064,
        "s_from": 145563060.092362,
        "p_to": -143792160.951401,
        "q_to": -20818916.823362,
        "i_to": 734.020171,
        "s_to": 145291475.485562,
        "loading": 0.73402
      },
      {
        "id": 74,
        "energized": 1,
        "p_from": -421446132.732213,
        "q_from": 71671680.133471,
        "i_from": 2157.478143,
        "s_from": 427496985.402345,
        "p_to": 424942876.496514,
        "q_to": -47804947.001022,
        "i_to": 2160.37583,
        "s_to": 427623387.156154,
        "loading": 2.160376
      },
      {
        "id": 75,
        "energized": 1,
        "p_from": 141559419.500539,
        "q_from": 36065114.492144,
        "i_from": 731.960152,
        "s_from": 146081353.131264,
        "p_to": -141154680.806624,
        "q_to": -36964179.186573,
        "i_to": 737.166913,
        "s_to": 145914339.448037,
        "loading": 0.737167
      }
    ],
    "transformer": [
      {
        "id": 81,
        "energized": 1,
        "p_from": 1219732285.558918,
        "q_from": 83923636.554117,
        "i_from": 3055.747663,
        "s_from": 1222616057.970469,
        "p_to": -1219716346.247915,
        "q_to": 75469472.679371,
        "i_to": 6137.888502,
        "s_to": 1222048937.895232,
        "loading": 1.222616
      },
      {
        "id": 82,
        "energized": 1,
        "p_from": -539996034.738489,
        "q_from": 58238031.513946,
        "i_from": 2743.908236,
        "s_from": 543127412.167634,
        "p_to": 540000000.0,
        "q_to": -18585416.59655,
        "i_to": 778.133563,
        "s_to": 540319736.554263,
        "loading": 0.543127
      }
    ],
    "voltage_regulator": [
      {
        "id": 19,
        "energized": 0,
        "limit_violated": 0
      },
      {
        "id": 29,
        "energized": 1,
        "limit_violated": 0
      },
      {
        "id": 38,
        "energized": 1,
        "limit_violated": 0
      },
      {
        "id": 39,
        "energized": 1,
        "limit_violated": 0
      },
      {
        "id": 48,
        "energized": 1,
        "limit_violated": 0
      },
      {
        "id": 49,
        "energized": 1,
        "limit_violated": 0
      },
      {
        "id": 69,
        "energized": 1,
        "limit_violated": 0
      }
    ]
  }
}